tests/golden/reports/show_voltages_node.txt

LINE-GROUND and LINE-LINE VOLTAGES BY BUS & NODE

Bus  Node    VLN (kV)   Angle      pu     Base kV    Node-Node   VLL (kV)  Angle      pu

SOURCEBUS .. 1       66.394 /_   30.0   0.99997   115.000        1-2        115 /_   60.0   0.99999
   -         2       66.395 /_  -90.0   0.99999   115.000        2-3        115 /_  -60.0   0.99997
   -         3       66.392 /_  150.0   0.99995   115.000        3-1     114.99 /_  180.0   0.99995
650 ........ 1       2.4016 /_    0.0   0.99991     4.160        1-2     4.1597 /_   30.0   0.99994
   -         2       2.4017 /_ -120.0   0.99997     4.160        2-3     4.1599 /_  -90.0   0.99997
   -         3       2.4016 /_  120.0   0.99993     4.160        3-1     4.1596 /_  150.0   0.99991
RG60 ....... 1       2.5364 /_    0.0     1.056     4.160        1-2     4.3544 /_   29.7    1.0467
   -         2       2.4916 /_ -120.0    1.0374     4.160        2-3     4.3545 /_  -89.7    1.0467
   -         3       2.5364 /_  120.0     1.056     4.160        3-1     4.3931 /_  150.0     1.056
633 ........ 1       2.4289 /_   -2.6    1.0113     4.160        1-2     4.2228 /_   28.1    1.0151
   -         2       2.4667 /_ -121.8     1.027     4.160        2-3     4.2287 /_  -92.4    1.0165
   -         3       2.4055 /_  117.8    1.0015     4.160        3-1     4.1942 /_  147.7    1.0082
634 ........ 1      0.27357 /_   -3.3   0.98716     0.480        1-2     0.4765 /_   27.6   0.99271
   -         2      0.27946 /_ -122.3    1.0084     0.480        2-3    0.47892 /_  -92.9   0.99776
   -         3      0.27227 /_  117.3   0.98246     0.480        3-1    0.47401 /_  147.1   0.98752
671 ........ 1       2.3605 /_   -5.4    0.9828     4.160        1-2     4.1439 /_   27.1   0.99614
   -         2       2.4985 /_ -122.4    1.0403     4.160        2-3     4.2053 /_  -94.4    1.0109
   -         3       2.3174 /_  116.0   0.96489     4.160        3-1     4.0787 /_  145.6   0.98046
645 ........ 2       2.4492 /_ -121.9    1.0197     4.160        2-3     4.2115 /_  -92.4    1.0124
   -         3       2.4073 /_  117.8    1.0023     4.160
646 ........ 2        2.445 /_ -122.0     1.018     4.160        2-3     4.2011 /_  -92.4    1.0099
   -         3       2.4024 /_  117.8    1.0002     4.160
692 ........ 1       2.3605 /_   -5.4    0.9828     4.160        1-2     4.1439 /_   27.1   0.99614
   -         2       2.4985 /_ -122.4    1.0403     4.160        2-3     4.2053 /_  -94.4    1.0109
   -         3       2.3174 /_  116.0   0.96489     4.160        3-1     4.0787 /_  145.6   0.98046
675 ........ 1       2.3448 /_   -5.6   0.97627     4.160        1-2      4.134 /_   27.1   0.99376
   -         2       2.5042 /_ -122.6    1.0426     4.160        2-3     4.2024 /_  -94.6    1.0102
   -         3       2.3128 /_  116.0   0.96295     4.160        3-1     4.0663 /_  145.4   0.97747
611 ........ 3       2.3077 /_  115.7   0.96084     4.160
652 ........ 1       2.3425 /_   -5.3   0.97533     4.160
670 ........ 1       2.4114 /_   -3.5     1.004     4.160        1-2     4.2028 /_   27.8    1.0103
   -         2       2.4783 /_ -122.0    1.0319     4.160        2-3     4.2247 /_  -93.1    1.0156
   -         3       2.3772 /_  117.1   0.98975     4.160        3-1     4.1587 /_  147.1   0.99969
632 ........ 1       2.4362 /_   -2.5    1.0143     4.160        1-2     4.2335 /_   28.1    1.0177
   -         2       2.4713 /_ -121.8    1.0289     4.160        2-3     4.2391 /_  -92.4     1.019
   -         3       2.4119 /_  117.8    1.0042     4.160        3-1     4.2048 /_  147.8    1.0108
680 ........ 1       2.3605 /_   -5.4    0.9828     4.160        1-2     4.1439 /_   27.1   0.99614
   -         2       2.4985 /_ -122.4    1.0403     4.160        2-3     4.2053 /_  -94.4    1.0109
   -         3       2.3174 /_  116.0   0.96489     4.160        3-1     4.0787 /_  145.6   0.98046
684 ........ 1       2.3558 /_   -5.4   0.98087     4.160
   -         3       2.3126 /_  115.9   0.96286     4.160        3-1     4.0689 /_  145.5    0.9781
